71301
  -OEChem-05092501293D

 54 57  0     1  0  0  0  0  0999 V2000
    7.9385   -1.5298   -1.4084 F   0  0  0  0  0  0  0  0  0  0  0  0
   -7.9387    1.5300   -1.4082 F   0  0  0  0  0  0  0  0  0  0  0  0
    3.3596    0.5287    0.8354 O   0  0  0  0  0  0  0  0  0  0  0  0
   -3.3596   -0.5287    0.8353 O   0  0  0  0  0  0  0  0  0  0  0  0
    2.1729    2.8754    1.7973 O   0  0  0  0  0  0  0  0  0  0  0  0
   -2.1726   -2.8757    1.7973 O   0  0  0  0  0  0  0  0  0  0  0  0
    0.0002   -0.0001    0.9357 N   0  0  0  0  0  0  0  0  0  0  0  0
    2.5117    1.3401    0.0081 C   0  0  1  0  0  0  0  0  0  0  0  0
   -2.5117   -1.3400    0.0079 C   0  0  1  0  0  0  0  0  0  0  0  0
    1.4780    1.9894    0.9203 C   0  0  1  0  0  0  0  0  0  0  0  0
   -1.4780   -1.9895    0.9200 C   0  0  1  0  0  0  0  0  0  0  0  0
    3.3167    2.3999   -0.7417 C   0  0  0  0  0  0  0  0  0  0  0  0
   -3.3168   -2.3998   -0.7418 C   0  0  0  0  0  0  0  0  0  0  0  0
    0.6990    0.9755    1.7612 C   0  0  0  0  0  0  0  0  0  0  0  0
   -0.6985   -0.9759    1.7612 C   0  0  0  0  0  0  0  0  0  0  0  0
    4.2974    1.7095   -1.6808 C   0  0  0  0  0  0  0  0  0  0  0  0
   -4.2976   -1.7094   -1.6810 C   0  0  0  0  0  0  0  0  0  0  0  0
    4.9984    0.5848   -0.9745 C   0  0  0  0  0  0  0  0  0  0  0  0
   -4.9985   -0.5847   -0.9745 C   0  0  0  0  0  0  0  0  0  0  0  0
    4.4911    0.0574    0.2204 C   0  0  0  0  0  0  0  0  0  0  0  0
   -4.4911   -0.0574    0.2203 C   0  0  0  0  0  0  0  0  0  0  0  0
    6.1622    0.0319   -1.5247 C   0  0  0  0  0  0  0  0  0  0  0  0
   -6.1623   -0.0318   -1.5246 C   0  0  0  0  0  0  0  0  0  0  0  0
    5.1615   -0.9798    0.8738 C   0  0  0  0  0  0  0  0  0  0  0  0
   -5.1615    0.9798    0.8738 C   0  0  0  0  0  0  0  0  0  0  0  0
    6.8231   -1.0124   -0.8771 C   0  0  0  0  0  0  0  0  0  0  0  0
   -6.8231    1.0125   -0.8770 C   0  0  0  0  0  0  0  0  0  0  0  0
    6.3251   -1.5152    0.3231 C   0  0  0  0  0  0  0  0  0  0  0  0
   -6.3251    1.5152    0.3233 C   0  0  0  0  0  0  0  0  0  0  0  0
    2.0044    0.6836   -0.7118 H   0  0  0  0  0  0  0  0  0  0  0  0
   -2.0122   -0.6895   -0.7215 H   0  0  0  0  0  0  0  0  0  0  0  0
    0.7726    2.5876    0.3296 H   0  0  0  0  0  0  0  0  0  0  0  0
   -0.7842   -2.5923    0.3212 H   0  0  0  0  0  0  0  0  0  0  0  0
    2.6640    3.0715   -1.3102 H   0  0  0  0  0  0  0  0  0  0  0  0
    3.8999    3.0105   -0.0405 H   0  0  0  0  0  0  0  0  0  0  0  0
   -2.6633   -3.0693   -1.3121 H   0  0  0  0  0  0  0  0  0  0  0  0
   -3.8919   -3.0141   -0.0368 H   0  0  0  0  0  0  0  0  0  0  0  0
    1.3817    0.4739    2.4593 H   0  0  0  0  0  0  0  0  0  0  0  0
   -0.0152    1.5244    2.3893 H   0  0  0  0  0  0  0  0  0  0  0  0
   -1.3770   -0.4783    2.4664 H   0  0  0  0  0  0  0  0  0  0  0  0
    0.0227   -1.5255    2.3800 H   0  0  0  0  0  0  0  0  0  0  0  0
    5.0231    2.4425   -2.0514 H   0  0  0  0  0  0  0  0  0  0  0  0
    3.7595    1.2993   -2.5440 H   0  0  0  0  0  0  0  0  0  0  0  0
   -5.0234   -2.4426   -2.0510 H   0  0  0  0  0  0  0  0  0  0  0  0
   -3.7600   -1.2993   -2.5445 H   0  0  0  0  0  0  0  0  0  0  0  0
   -0.6586    0.4937    0.3360 H   0  0  0  0  0  0  0  0  0  0  0  0
    2.3248    3.7083    1.3194 H   0  0  0  0  0  0  0  0  0  0  0  0
   -1.5089   -3.3145    2.3563 H   0  0  0  0  0  0  0  0  0  0  0  0
    6.5636    0.4163   -2.4589 H   0  0  0  0  0  0  0  0  0  0  0  0
   -6.5638   -0.4161   -2.4587 H   0  0  0  0  0  0  0  0  0  0  0  0
    4.7786   -1.3797    1.8091 H   0  0  0  0  0  0  0  0  0  0  0  0
   -4.7786    1.3796    1.8091 H   0  0  0  0  0  0  0  0  0  0  0  0
    6.8424   -2.3252    0.8286 H   0  0  0  0  0  0  0  0  0  0  0  0
   -6.8424    2.3253    0.8288 H   0  0  0  0  0  0  0  0  0  0  0  0
  1 26  1  0  0  0  0
  2 27  1  0  0  0  0
  3  8  1  0  0  0  0
  3 20  1  0  0  0  0
  4  9  1  0  0  0  0
  4 21  1  0  0  0  0
  5 10  1  0  0  0  0
  5 47  1  0  0  0  0
  6 11  1  0  0  0  0
  6 48  1  0  0  0  0
  7 14  1  0  0  0  0
  7 15  1  0  0  0  0
  7 46  1  0  0  0  0
  8 10  1  0  0  0  0
  8 12  1  0  0  0  0
  8 30  1  0  0  0  0
  9 11  1  0  0  0  0
  9 13  1  0  0  0  0
  9 31  1  0  0  0  0
 10 14  1  0  0  0  0
 10 32  1  0  0  0  0
 11 15  1  0  0  0  0
 11 33  1  0  0  0  0
 12 16  1  0  0  0  0
 12 34  1  0  0  0  0
 12 35  1  0  0  0  0
 13 17  1  0  0  0  0
 13 36  1  0  0  0  0
 13 37  1  0  0  0  0
 14 38  1  0  0  0  0
 14 39  1  0  0  0  0
 15 40  1  0  0  0  0
 15 41  1  0  0  0  0
 16 18  1  0  0  0  0
 16 42  1  0  0  0  0
 16 43  1  0  0  0  0
 17 19  1  0  0  0  0
 17 44  1  0  0  0  0
 17 45  1  0  0  0  0
 18 20  2  0  0  0  0
 18 22  1  0  0  0  0
 19 21  2  0  0  0  0
 19 23  1  0  0  0  0
 20 24  1  0  0  0  0
 21 25  1  0  0  0  0
 22 26  2  0  0  0  0
 22 49  1  0  0  0  0
 23 27  2  0  0  0  0
 23 50  1  0  0  0  0
 24 28  2  0  0  0  0
 24 51  1  0  0  0  0
 25 29  2  0  0  0  0
 25 52  1  0  0  0  0
 26 28  1  0  0  0  0
 27 29  1  0  0  0  0
 28 53  1  0  0  0  0
 29 54  1  0  0  0  0
M  END
> <PUBCHEM_COMPOUND_CID>
71301

> <PUBCHEM_CONFORMER_RMSD>
1

> <PUBCHEM_CONFORMER_DIVERSEORDER>
8
175
29
254
2
5
115
169
1
112
228
170
60
164
3
114
246
4
12
28
155
138
262
44
75
174
43
69
120
136
146
22
173
144
32
38
124
189
52
252
63
238
7
172
143
182
23
269
194
10
57
34
11
53
51
161
92
72
279
249
58
272
100
282
54
197
176
271
235
67
260
160
151
227
157
37
89
152
71
199
35
275
27
147
81
113
243
222
95
18
258
85
290
224
215
159
20
236
45
83
278
50
78
148
108
73
239
177
139
86
96
49
125
211
111
119
101
16
47
210
226
41
74
142
68
253
56
292
126
287
46
134
193
88
185
286
118
219
163
280
93
40
245
230
121
206
285
140
132
33
13
241
105
36
202
200
122
79
213
276
25
166
117
14
257
66
265
6
109
195
82
218
24
80
70
247
15
274
223
251
284
255
273
62
229
221
97
91
102
149
106
171
123
137
261
17
209
178
153
190
234
181
165
103
201
212
270
250
61
127
237
188
208
31
145
150
59
192
231
281
21
26
207
77
154
198
244
104
187
264
214
156
64
204
233
48
90
131
232
256
291
259
65
141
128
19
220
168
94
107
240
167
217
98
277
9
263
289
110
183
99
248
225
55
135
293
39
158
76
186
191
184
42
30
133
130
129
205
267
87
203
216
196
283
179
84
268
242
266
180
116
162
288

> <PUBCHEM_MMFF94_PARTIAL_CHARGES>
36
1 -0.19
10 0.28
11 0.28
14 0.27
15 0.27
16 0.14
17 0.14
18 -0.14
19 -0.14
2 -0.19
20 0.08
21 0.08
22 -0.15
23 -0.15
24 -0.15
25 -0.15
26 0.19
27 0.19
28 -0.15
29 -0.15
3 -0.36
4 -0.36
46 0.36
47 0.4
48 0.4
49 0.15
5 -0.68
50 0.15
51 0.15
52 0.15
53 0.15
54 0.15
6 -0.68
7 -0.9
8 0.28
9 0.28

> <PUBCHEM_EFFECTIVE_ROTOR_COUNT>
7.6

> <PUBCHEM_PHARMACOPHORE_FEATURES>
12
1 3 acceptor
1 4 acceptor
1 5 acceptor
1 5 donor
1 6 acceptor
1 6 donor
1 7 cation
1 7 donor
6 18 20 22 24 26 28 rings
6 19 21 23 25 27 29 rings
6 3 8 12 16 18 20 rings
6 4 9 13 17 19 21 rings

> <PUBCHEM_HEAVY_ATOM_COUNT>
29

> <PUBCHEM_ATOM_DEF_STEREO_COUNT>
0

> <PUBCHEM_ATOM_UDEF_STEREO_COUNT>
4

> <PUBCHEM_BOND_DEF_STEREO_COUNT>
0

> <PUBCHEM_BOND_UDEF_STEREO_COUNT>
0

> <PUBCHEM_ISOTOPIC_ATOM_COUNT>
0

> <PUBCHEM_COMPONENT_COUNT>
1

> <PUBCHEM_CACTVS_TAUTO_COUNT>
1

> <PUBCHEM_CONFORMER_ID>
0001168500000008

> <PUBCHEM_MMFF94_ENERGY>
69.981

> <PUBCHEM_FEATURE_SELFOVERLAP>
60.963

> <PUBCHEM_SHAPE_FINGERPRINT>
10 15 11963387440892902781
10369192 42 13912327888808765690
10613725 11 18410856563934756962
10670039 82 18339922624428027585
10674148 151 17603303744173351380
10835480 77 18337955718284702856
10842051 180 9294996943276716457
11135609 201 11747224606034152820
11724838 91 10663814170758660856
11796584 16 18261396693640971762
12120059 20 9366477384353619097
12596602 18 10015594904032645125
128238 76 8718534004597874280
12977781 61 14833834167590238327
13782708 43 16987430022683526935
14117953 113 18336548206099566974
14840074 17 16660637467200144637
14848160 23 15267345127884283522
14848178 5 15769505316773010750
14904385 31 8142080979220638925
15052358 14 18411419513972697883
15064981 113 17917713461817238109
15183329 4 18410575071778177025
15188451 53 15769777940318074394
15320295 40 16200146569226446045
15444296 9 18337674087923675316
15575132 122 17023171705301553149
16126227 98 11603121495575450182
17349148 13 15697454345590477474
18222031 100 17489599982643548208
19309040 13 15359985657600689422
2026 5 16487251076301218615
20567600 234 12751231519839283042
20567600 70 11239702116127466493
23559900 14 17988353892609087841
23572383 38 15769782376496929084
3004659 81 18410013243618296170
339767 52 16702307853659011254
3459 83 18409168800706539153
38570 142 18040432183854929699
4058900 60 17822849763747464041
4098825 35 17604442906659343154
4149490 64 12102692322012030085
4339292 15 17702675350888083166
4394409 98 17775566433582439303
44062 13 18059294382738314239
444769 64 18201449051687829779
5085150 59 16702300148482609503
552612 73 14490192691564403552
57307002 182 13182722751096268282
59755656 520 18040716983305457451
6201320 82 14781554568123646174
6376802 90 17974005351955373864
9689198 14 15647059239453927773

> <PUBCHEM_SHAPE_MULTIPOLES>
553.8
21.92
2.65
1.83
0
0
0.05
0
-11.56
0
0.43
0
0
0.19

> <PUBCHEM_SHAPE_SELFOVERLAP>
1192.584

> <PUBCHEM_SHAPE_VOLUME>
305.1

> <PUBCHEM_COORDINATE_TYPE>
2
5
10

$$$$
